C8H16
APtclcactv05091511553D 0   0.00000     0.00000
 
 24 23  0  0  0  0  0  0  0  0999 V2000
    4.1736   -0.1580   -0.5491 C   0  0  0  0  0  0  0  0  0  0  0  0
    3.2088   -0.2934    0.3265 C   0  0  0  0  0  0  0  0  0  0  0  0
    1.9709    0.5597    0.2217 C   0  0  0  0  0  0  0  0  0  0  0  0
    0.7342   -0.3398    0.1733 C   0  0  0  0  0  0  0  0  0  0  0  0
   -0.5226    0.5263    0.0669 C   0  0  0  0  0  0  0  0  0  0  0  0
   -1.7593   -0.3732    0.0185 C   0  0  0  0  0  0  0  0  0  0  0  0
   -3.0160    0.4929   -0.0880 C   0  0  0  0  0  0  0  0  0  0  0  0
   -4.2527   -0.4066   -0.1363 C   0  0  0  0  0  0  0  0  0  0  0  0
    5.0608   -0.7694   -0.4740 H   0  0  0  0  0  0  0  0  0  0  0  0
    4.0801    0.5618   -1.3488 H   0  0  0  0  0  0  0  0  0  0  0  0
    3.3004   -1.0164    1.1236 H   0  0  0  0  0  0  0  0  0  0  0  0
    1.9083    1.2172    1.0888 H   0  0  0  0  0  0  0  0  0  0  0  0
    2.0193    1.1600   -0.6868 H   0  0  0  0  0  0  0  0  0  0  0  0
    0.7968   -0.9973   -0.6938 H   0  0  0  0  0  0  0  0  0  0  0  0
    0.6858   -0.9401    1.0818 H   0  0  0  0  0  0  0  0  0  0  0  0
   -0.5852    1.1838    0.9339 H   0  0  0  0  0  0  0  0  0  0  0  0
   -0.4742    1.1267   -0.8416 H   0  0  0  0  0  0  0  0  0  0  0  0
   -1.6966   -1.0307   -0.8486 H   0  0  0  0  0  0  0  0  0  0  0  0
   -1.8076   -0.9735    0.9270 H   0  0  0  0  0  0  0  0  0  0  0  0
   -3.0786    1.1505    0.7791 H   0  0  0  0  0  0  0  0  0  0  0  0
   -2.9676    1.0933   -0.9965 H   0  0  0  0  0  0  0  0  0  0  0  0
   -4.3011   -1.0069    0.7722 H   0  0  0  0  0  0  0  0  0  0  0  0
   -5.1480    0.2105   -0.2122 H   0  0  0  0  0  0  0  0  0  0  0  0
   -4.1901   -1.0641   -1.0034 H   0  0  0  0  0  0  0  0  0  0  0  0
  1  2  2  0  0  0  0
  2  3  1  0  0  0  0
  3  4  1  0  0  0  0
  4  5  1  0  0  0  0
  5  6  1  0  0  0  0
  6  7  1  0  0  0  0
  7  8  1  0  0  0  0
  1  9  1  0  0  0  0
  1 10  1  0  0  0  0
  2 11  1  0  0  0  0
  3 12  1  0  0  0  0
  3 13  1  0  0  0  0
  4 14  1  0  0  0  0
  4 15  1  0  0  0  0
  5 16  1  0  0  0  0
  5 17  1  0  0  0  0
  6 18  1  0  0  0  0
  6 19  1  0  0  0  0
  7 20  1  0  0  0  0
  7 21  1  0  0  0  0
  8 22  1  0  0  0  0
  8 23  1  0  0  0  0
  8 24  1  0  0  0  0
M  END
$$$$
